*PARAMETER
R TEND       1.0
R DTPLOT     0.005
R DTSTAT     0.001
R GRAVY   -9810.0
*CONTROL_TERMINATION
&TEND
*CONTROL_TIMESTEP
0.0,0.60,0,0.0,0.0
*CONTROL_ENERGY
2,2,2,2
*DATABASE_BINARY_D3PLOT
&DTPLOT
*DATABASE_GLSTAT
&DTSTAT
*DATABASE_TRACER
&DTSTAT
*DATABASE_TRHIST
&DTSTAT
*SECTION_SOLID
1,1
*MAT_NULL
1,1.0e-9
*EOS_GRUNEISEN
1,1480.0,0.0,7.0
*PART
ale_fluid
1,1,1
*LOAD_BODY_Y
1,&GRAVY

