*HEADING
Cantilever beam example
*NODE,NSET=NALL
1, 0., 0., 0.
2, 0., 0., 5.
3, 0., 0., 10.
*ELEMENT,TYPE=B32R,ELSET=EALL
1, 1,2,3
*BOUNDARY
3,1,6
*MATERIAL,NAME=ALUM
*ELASTIC
1.0E7, 0.3
*BEAM SECTION,ELSET=EALL,MATERIAL=ALUM,SECTION=RECT
0.25,0.25
1.0,0.0,0.0
*STEP
*STATIC
*CLOAD
1,1,1.0
*NODE FILE,OUTPUT=3D
U
*EL FILE
S,NOE
*END STEP
