*HEADING
Minimal frequency CalculiX example
*NODE
1, 0., 0., 0.
2, 1., 0., 0.
*ELEMENT, TYPE=C3D8, ELSET=EALL
1, 1,2,2,1,1,2,2,1
*NSET, NSET=FIXED
1
*MATERIAL, NAME=MAT1
*ELASTIC
210000., 0.3
*DENSITY
7.8E-9
*SOLID SECTION, ELSET=EALL, MATERIAL=MAT1
*STEP
*FREQUENCY
10
*BOUNDARY
FIXED, 1, 3, 0.
*END STEP
