*HEADING
Minimal static CalculiX example
*NODE
1, 0., 0., 0.
2, 1., 0., 0.
*ELEMENT, TYPE=C3D8, ELSET=EALL
1, 1,2,2,1,1,2,2,1
*NSET, NSET=FIXED
1
*NSET, NSET=LOADED
2
*MATERIAL, NAME=MAT1
*ELASTIC
210000., 0.3
*SOLID SECTION, ELSET=EALL, MATERIAL=MAT1
*STEP
*STATIC
*BOUNDARY
FIXED, 1, 3, 0.
*CLOAD
LOADED, 1, 1000.
*END STEP
