*HEADING
Minimal thermal CalculiX example
*NODE
1, 0., 0., 0.
2, 1., 0., 0.
*ELEMENT,TYPE=C3D8,ELSET=EALL
1, 1,2,2,1,1,2,2,1
*NSET, NSET=HOT
1
*NSET, NSET=COLD
2
*MATERIAL,NAME=MAT1
*CONDUCTIVITY
10.0
*SOLID SECTION, ELSET=EALL, MATERIAL=MAT1
*STEP
*HEAT TRANSFER
*BOUNDARY
HOT, 11, 11, 400.
COLD, 11, 11, 300.
*END STEP
